8
Lattice="6.19 0.0 0.0 0.0 6.19 0.0 0.0 0.0 6.19" Properties=species:S:1:pos:R:3:forces:R:3 energy=-37.51201295 stress="0.052418590378671935 -0.0 0.0 -0.0 0.052418590378671935 -0.0 0.0 -0.0 0.052418590378671935" pbc="T T T"
In       0.00000000       0.00000000       0.00000000       0.00000000      -0.00000000      -0.00000000
In       3.09500000       0.00000000       3.09500000      -0.00000000      -0.00000000       0.00000000
In       0.00000000       3.09500000       3.09500000       0.00000000      -0.00000000       0.00000000
In       3.09500000       3.09500000       0.00000000       0.00000000      -0.00000000      -0.00000000
P        1.54750000       1.54750000       4.64250000      -0.00000000       0.00000000      -0.00000000
P        4.64250000       1.54750000       1.54750000      -0.00000000       0.00000000      -0.00000000
P        1.54750000       4.64250000       1.54750000      -0.00000000       0.00000000      -0.00000000
P        4.64250000       4.64250000       4.64250000      -0.00000000       0.00000000       0.00000000
