8
Lattice="6.59 0.0 0.0 0.0 6.59 0.0 0.0 0.0 6.59" Properties=species:S:1:pos:R:3:forces:R:3 energy=-34.45107583 stress="0.06760237828580853 -0.0 0.0 -0.0 0.06760237828580853 -0.0 0.0 -0.0 0.06760237828580853" pbc="T T T"
In       0.00000000       0.00000000       0.00000000       0.00000000      -0.00000000       0.00000000
In       3.29500000       0.00000000       3.29500000       0.00000000       0.00000000       0.00000000
In       0.00000000       3.29500000       3.29500000      -0.00000000       0.00000000       0.00000000
In       3.29500000       3.29500000       0.00000000       0.00000000      -0.00000000       0.00000000
P        1.64750000       1.64750000       4.94250000      -0.00000000       0.00000000      -0.00000000
P        4.94250000       1.64750000       1.64750000      -0.00000000       0.00000000      -0.00000000
P        1.64750000       4.94250000       1.64750000      -0.00000000       0.00000000      -0.00000000
P        4.94250000       4.94250000       4.94250000      -0.00000000      -0.00000000      -0.00000000
