8
Lattice="6.51 0.0 0.0 0.0 6.51 0.0 0.0 0.0 6.51" Properties=species:S:1:pos:R:3:forces:R:3 energy=-35.1417472 stress="0.0664176711971155 -0.0 0.0 -0.0 0.0664176711971155 0.0 0.0 0.0 0.0664176711971155" pbc="T T T"
In       0.00000000       0.00000000       0.00000000       0.00000000      -0.00000000       0.00000000
In       3.25500000       0.00000000       3.25500000       0.00000000       0.00000000       0.00000000
In       0.00000000       3.25500000       3.25500000       0.00000000       0.00000000       0.00000000
In       3.25500000       3.25500000       0.00000000       0.00000000       0.00000000       0.00000000
P        1.62750000       1.62750000       4.88250000      -0.00000000      -0.00000000      -0.00000000
P        4.88250000       1.62750000       1.62750000      -0.00000000      -0.00000000      -0.00000000
P        1.62750000       4.88250000       1.62750000      -0.00000000       0.00000000      -0.00000000
P        4.88250000       4.88250000       4.88250000      -0.00000000       0.00000000      -0.00000000
