8
Lattice="5.26 0.0 0.0 0.0 5.26 0.0 0.0 0.0 5.26" Properties=species:S:1:pos:R:3:forces:R:3 energy=-33.26546078 stress="-0.27467371217803754 -0.0 0.0 -0.0 -0.27467371217803754 -0.0 0.0 -0.0 -0.27467371217803754" pbc="T T T"
In       0.00000000       0.00000000       0.00000000      -0.00000000       0.00000000      -0.00000000
In       2.63000000       0.00000000       2.63000000       0.00000000       0.00000000       0.00000000
In       0.00000000       2.63000000       2.63000000      -0.00000000       0.00000000       0.00000000
In       2.63000000       2.63000000       0.00000000      -0.00000000       0.00000000       0.00000000
P        1.31500000       1.31500000       3.94500000       0.00000000      -0.00000000      -0.00000000
P        3.94500000       1.31500000       1.31500000       0.00000000      -0.00000000      -0.00000000
P        1.31500000       3.94500000       1.31500000       0.00000000      -0.00000000      -0.00000000
P        3.94500000       3.94500000       3.94500000       0.00000000      -0.00000000      -0.00000000
