8
Lattice="5.72 0.0 0.0 0.0 5.72 0.0 0.0 0.0 5.72" Properties=species:S:1:pos:R:3:forces:R:3 energy=-38.57822204 stress="-0.028487602058011506 0.0 0.0 0.0 -0.028487602058011506 -0.0 0.0 -0.0 -0.028487602058011506" pbc="T T T"
In       0.00000000       0.00000000       0.00000000       0.00000000       0.00000000       0.00000000
In       2.86000000       0.00000000       2.86000000       0.00000000      -0.00000000       0.00000000
In       0.00000000       2.86000000       2.86000000       0.00000000      -0.00000000       0.00000000
In       2.86000000       2.86000000       0.00000000       0.00000000       0.00000000       0.00000000
P        1.43000000       1.43000000       4.29000000      -0.00000000      -0.00000000      -0.00000000
P        4.29000000       1.43000000       1.43000000      -0.00000000      -0.00000000      -0.00000000
P        1.43000000       4.29000000       1.43000000      -0.00000000       0.00000000      -0.00000000
P        4.29000000       4.29000000       4.29000000      -0.00000000      -0.00000000      -0.00000000
