8
Lattice="4.88 0.0 0.0 0.0 4.88 0.0 0.0 0.0 4.88" Properties=species:S:1:pos:R:3:forces:R:3 energy=-19.04244391 stress="-0.7740977142586951 -0.0 -0.0 -0.0 -0.7740977142586951 0.0 -0.0 0.0 -0.7740977142586951" pbc="T T T"
In       0.00000000       0.00000000       0.00000000      -0.00000000       0.00000000       0.00000000
In       2.44000000       0.00000000       2.44000000      -0.00000000      -0.00000000       0.00000000
In       0.00000000       2.44000000       2.44000000      -0.00000000       0.00000000       0.00000000
In       2.44000000       2.44000000       0.00000000       0.00000000       0.00000000      -0.00000000
P        1.22000000       1.22000000       3.66000000      -0.00000000      -0.00000000       0.00000000
P        3.66000000       1.22000000       1.22000000      -0.00000000      -0.00000000       0.00000000
P        1.22000000       3.66000000       1.22000000      -0.00000000      -0.00000000       0.00000000
P        3.66000000       3.66000000       3.66000000      -0.00000000      -0.00000000       0.00000000
