8
Lattice="6.5 0.0 0.0 0.0 6.5 0.0 0.0 0.0 6.5" Properties=species:S:1:pos:R:3:forces:R:3 energy=-35.22614866 stress="0.06649520322347723 -0.0 -0.0 -0.0 0.06649520322347723 -0.0 -0.0 -0.0 0.06649520322347723" pbc="T T T"
In       0.00000000       0.00000000       0.00000000       0.00000000      -0.00000000       0.00000000
In       3.25000000       0.00000000       3.25000000       0.00000000       0.00000000       0.00000000
In       0.00000000       3.25000000       3.25000000      -0.00000000       0.00000000       0.00000000
In       3.25000000       3.25000000       0.00000000       0.00000000       0.00000000      -0.00000000
P        1.62500000       1.62500000       4.87500000      -0.00000000      -0.00000000      -0.00000000
P        4.87500000       1.62500000       1.62500000      -0.00000000      -0.00000000      -0.00000000
P        1.62500000       4.87500000       1.62500000      -0.00000000      -0.00000000      -0.00000000
P        4.87500000       4.87500000       4.87500000      -0.00000000      -0.00000000      -0.00000000
