8
Lattice="5.56 0.0 0.0 0.0 5.56 0.0 0.0 0.0 5.56" Properties=species:S:1:pos:R:3:forces:R:3 energy=-37.72232209 stress="-0.08721326861593412 -0.0 -0.0 -0.0 -0.08721326861593412 0.0 -0.0 0.0 -0.08721326861593412" pbc="T T T"
In       0.00000000       0.00000000       0.00000000       0.00000000      -0.00000000       0.00000000
In       2.78000000       0.00000000       2.78000000       0.00000000      -0.00000000       0.00000000
In       0.00000000       2.78000000       2.78000000       0.00000000      -0.00000000       0.00000000
In       2.78000000       2.78000000       0.00000000       0.00000000       0.00000000       0.00000000
P        1.39000000       1.39000000       4.17000000      -0.00000000      -0.00000000      -0.00000000
P        4.17000000       1.39000000       1.39000000      -0.00000000      -0.00000000      -0.00000000
P        1.39000000       4.17000000       1.39000000      -0.00000000       0.00000000      -0.00000000
P        4.17000000       4.17000000       4.17000000      -0.00000000       0.00000000      -0.00000000
