8
Lattice="5.34 0.0 0.0 0.0 5.34 0.0 0.0 0.0 5.34" Properties=species:S:1:pos:R:3:forces:R:3 energy=-34.90038699 stress="-0.2119011946576021 0.0 0.0 0.0 -0.2119011946576021 -0.0 0.0 -0.0 -0.2119011946576021" pbc="T T T"
In       0.00000000       0.00000000       0.00000000       0.00000000      -0.00000000       0.00000000
In       2.67000000       0.00000000       2.67000000      -0.00000000      -0.00000000       0.00000000
In       0.00000000       2.67000000       2.67000000      -0.00000000       0.00000000      -0.00000000
In       2.67000000       2.67000000       0.00000000      -0.00000000       0.00000000       0.00000000
P        1.33500000       1.33500000       4.00500000       0.00000000      -0.00000000      -0.00000000
P        4.00500000       1.33500000       1.33500000       0.00000000      -0.00000000      -0.00000000
P        1.33500000       4.00500000       1.33500000       0.00000000      -0.00000000      -0.00000000
P        4.00500000       4.00500000       4.00500000       0.00000000      -0.00000000      -0.00000000
