8
Lattice="6.58 0.0 0.0 0.0 6.58 0.0 0.0 0.0 6.58" Properties=species:S:1:pos:R:3:forces:R:3 energy=-34.53878034 stress="0.06755752055972081 -0.0 0.0 -0.0 0.06755752055972081 0.0 0.0 0.0 0.06755752055972081" pbc="T T T"
In       0.00000000       0.00000000       0.00000000       0.00000000       0.00000000      -0.00000000
In       3.29000000       0.00000000       3.29000000      -0.00000000       0.00000000       0.00000000
In       0.00000000       3.29000000       3.29000000      -0.00000000      -0.00000000      -0.00000000
In       3.29000000       3.29000000       0.00000000       0.00000000       0.00000000      -0.00000000
P        1.64500000       1.64500000       4.93500000       0.00000000       0.00000000       0.00000000
P        4.93500000       1.64500000       1.64500000       0.00000000       0.00000000       0.00000000
P        1.64500000       4.93500000       1.64500000       0.00000000      -0.00000000       0.00000000
P        4.93500000       4.93500000       4.93500000       0.00000000       0.00000000       0.00000000
