8
Lattice="6.99 0.0 0.0 0.0 6.99 0.0 0.0 0.0 6.99" Properties=species:S:1:pos:R:3:forces:R:3 energy=-30.7696645 stress="0.06400582099918257 -0.0 -0.0 -0.0 0.06400582099918257 0.0 -0.0 0.0 0.06400582099918257" pbc="T T T"
In       0.00000000       0.00000000       0.00000000      -0.00000000       0.00000000      -0.00000000
In       3.49500000       0.00000000       3.49500000      -0.00000000      -0.00000000      -0.00000000
In       0.00000000       3.49500000       3.49500000      -0.00000000      -0.00000000      -0.00000000
In       3.49500000       3.49500000       0.00000000      -0.00000000       0.00000000      -0.00000000
P        1.74750000       1.74750000       5.24250000       0.00000000      -0.00000000       0.00000000
P        5.24250000       1.74750000       1.74750000       0.00000000      -0.00000000       0.00000000
P        1.74750000       5.24250000       1.74750000       0.00000000      -0.00000000       0.00000000
P        5.24250000       5.24250000       5.24250000       0.00000000      -0.00000000       0.00000000
