8
Lattice="5.65 0.0 0.0 0.0 5.65 0.0 0.0 0.0 5.65" Properties=species:S:1:pos:R:3:forces:R:3 energy=-38.30736293 stress="-0.05172651936377576 0.0 -0.0 0.0 -0.05172651936377576 0.0 -0.0 0.0 -0.05172651936377576" pbc="T T T"
In       0.00000000       0.00000000       0.00000000      -0.00000000      -0.00000000      -0.00000000
In       2.82500000       0.00000000       2.82500000      -0.00000000       0.00000000      -0.00000000
In       0.00000000       2.82500000       2.82500000      -0.00000000      -0.00000000      -0.00000000
In       2.82500000       2.82500000       0.00000000      -0.00000000      -0.00000000      -0.00000000
P        1.41250000       1.41250000       4.23750000       0.00000000       0.00000000       0.00000000
P        4.23750000       1.41250000       1.41250000       0.00000000      -0.00000000       0.00000000
P        1.41250000       4.23750000       1.41250000       0.00000000      -0.00000000       0.00000000
P        4.23750000       4.23750000       4.23750000       0.00000000       0.00000000       0.00000000
