8
Lattice="6.17 0.0 0.0 0.0 6.17 0.0 0.0 0.0 6.17" Properties=species:S:1:pos:R:3:forces:R:3 energy=-37.62994505 stress="0.05079026802885676 0.0 -0.0 0.0 0.05079026802885676 0.0 -0.0 0.0 0.05079026802885676" pbc="T T T"
In       0.00000000       0.00000000       0.00000000       0.00000000      -0.00000000       0.00000000
In       3.08500000       0.00000000       3.08500000      -0.00000000      -0.00000000       0.00000000
In       0.00000000       3.08500000       3.08500000       0.00000000       0.00000000       0.00000000
In       3.08500000       3.08500000       0.00000000       0.00000000       0.00000000       0.00000000
P        1.54250000       1.54250000       4.62750000      -0.00000000       0.00000000      -0.00000000
P        4.62750000       1.54250000       1.54250000      -0.00000000      -0.00000000      -0.00000000
P        1.54250000       4.62750000       1.54250000      -0.00000000      -0.00000000      -0.00000000
P        4.62750000       4.62750000       4.62750000      -0.00000000      -0.00000000      -0.00000000
