8
Lattice="5.51 0.0 0.0 0.0 5.51 0.0 0.0 0.0 5.51" Properties=species:S:1:pos:R:3:forces:R:3 energy=-37.26803657 stress="-0.11051212313383421 0.0 -0.0 0.0 -0.11051212313383421 -0.0 -0.0 -0.0 -0.11051212313383421" pbc="T T T"
In       0.00000000       0.00000000       0.00000000       0.00000000      -0.00000000       0.00000000
In       2.75500000       0.00000000       2.75500000       0.00000000      -0.00000000       0.00000000
In       0.00000000       2.75500000       2.75500000       0.00000000       0.00000000       0.00000000
In       2.75500000       2.75500000       0.00000000      -0.00000000       0.00000000       0.00000000
P        1.37750000       1.37750000       4.13250000      -0.00000000       0.00000000      -0.00000000
P        4.13250000       1.37750000       1.37750000      -0.00000000      -0.00000000      -0.00000000
P        1.37750000       4.13250000       1.37750000      -0.00000000       0.00000000      -0.00000000
P        4.13250000       4.13250000       4.13250000      -0.00000000       0.00000000      -0.00000000
