8
Lattice="6.07 0.0 0.0 0.0 6.07 0.0 0.0 0.0 6.07" Properties=species:S:1:pos:R:3:forces:R:3 energy=-38.14582587 stress="0.040859402858663914 -0.0 -0.0 -0.0 0.040859402858663914 -0.0 -0.0 -0.0 0.040859402858663914" pbc="T T T"
In       0.00000000       0.00000000       0.00000000       0.00000000       0.00000000       0.00000000
In       3.03500000       0.00000000       3.03500000       0.00000000      -0.00000000       0.00000000
In       0.00000000       3.03500000       3.03500000       0.00000000      -0.00000000       0.00000000
In       3.03500000       3.03500000       0.00000000       0.00000000       0.00000000       0.00000000
P        1.51750000       1.51750000       4.55250000      -0.00000000      -0.00000000      -0.00000000
P        4.55250000       1.51750000       1.51750000      -0.00000000      -0.00000000      -0.00000000
P        1.51750000       4.55250000       1.51750000      -0.00000000      -0.00000000      -0.00000000
P        4.55250000       4.55250000       4.55250000      -0.00000000      -0.00000000      -0.00000000
