8
Lattice="6.87 0.0 0.0 0.0 6.87 0.0 0.0 0.0 6.87" Properties=species:S:1:pos:R:3:forces:R:3 energy=-31.89303281 stress="0.06603418039340297 -0.0 0.0 -0.0 0.06603418039340297 -0.0 0.0 -0.0 0.06603418039340297" pbc="T T T"
In       0.00000000       0.00000000       0.00000000      -0.00000000      -0.00000000       0.00000000
In       3.43500000       0.00000000       3.43500000      -0.00000000      -0.00000000       0.00000000
In       0.00000000       3.43500000       3.43500000       0.00000000       0.00000000       0.00000000
In       3.43500000       3.43500000       0.00000000       0.00000000       0.00000000       0.00000000
P        1.71750000       1.71750000       5.15250000      -0.00000000      -0.00000000      -0.00000000
P        5.15250000       1.71750000       1.71750000      -0.00000000      -0.00000000      -0.00000000
P        1.71750000       5.15250000       1.71750000      -0.00000000      -0.00000000      -0.00000000
P        5.15250000       5.15250000       5.15250000      -0.00000000      -0.00000000      -0.00000000
