8
Lattice="6.38 0.0 0.0 0.0 6.38 0.0 0.0 0.0 6.38" Properties=species:S:1:pos:R:3:forces:R:3 energy=-36.19668091 stress="0.063407391345702 -0.0 -0.0 -0.0 0.063407391345702 0.0 -0.0 0.0 0.063407391345702" pbc="T T T"
In       0.00000000       0.00000000       0.00000000      -0.00000000      -0.00000000       0.00000000
In       3.19000000       0.00000000       3.19000000       0.00000000       0.00000000       0.00000000
In       0.00000000       3.19000000       3.19000000       0.00000000       0.00000000       0.00000000
In       3.19000000       3.19000000       0.00000000      -0.00000000      -0.00000000       0.00000000
P        1.59500000       1.59500000       4.78500000      -0.00000000      -0.00000000      -0.00000000
P        4.78500000       1.59500000       1.59500000      -0.00000000      -0.00000000      -0.00000000
P        1.59500000       4.78500000       1.59500000      -0.00000000      -0.00000000      -0.00000000
P        4.78500000       4.78500000       4.78500000      -0.00000000       0.00000000      -0.00000000
