8
Lattice="5.84 0.0 0.0 0.0 5.84 0.0 0.0 0.0 5.84" Properties=species:S:1:pos:R:3:forces:R:3 energy=-38.72640441 stress="0.0026041323695740197 -0.0 0.0 -0.0 0.0026041323695740197 0.0 0.0 0.0 0.0026041323695740197" pbc="T T T"
In       0.00000000       0.00000000       0.00000000      -0.00000000       0.00000000      -0.00000000
In       2.92000000       0.00000000       2.92000000       0.00000000      -0.00000000       0.00000000
In       0.00000000       2.92000000       2.92000000      -0.00000000      -0.00000000      -0.00000000
In       2.92000000       2.92000000       0.00000000      -0.00000000       0.00000000      -0.00000000
P        1.46000000       1.46000000       4.38000000       0.00000000      -0.00000000       0.00000000
P        4.38000000       1.46000000       1.46000000       0.00000000      -0.00000000      -0.00000000
P        1.46000000       4.38000000       1.46000000       0.00000000      -0.00000000      -0.00000000
P        4.38000000       4.38000000       4.38000000       0.00000000       0.00000000       0.00000000
