8
Lattice="5.27 0.0 0.0 0.0 5.27 0.0 0.0 0.0 5.27" Properties=species:S:1:pos:R:3:forces:R:3 energy=-33.4905808 stress="-0.2663602279921622 0.0 0.0 0.0 -0.2663602279921622 0.0 0.0 0.0 -0.2663602279921622" pbc="T T T"
In       0.00000000       0.00000000       0.00000000       0.00000000      -0.00000000       0.00000000
In       2.63500000       0.00000000       2.63500000       0.00000000      -0.00000000       0.00000000
In       0.00000000       2.63500000       2.63500000      -0.00000000      -0.00000000      -0.00000000
In       2.63500000       2.63500000       0.00000000      -0.00000000       0.00000000       0.00000000
P        1.31750000       1.31750000       3.95250000      -0.00000000       0.00000000      -0.00000000
P        3.95250000       1.31750000       1.31750000      -0.00000000       0.00000000      -0.00000000
P        1.31750000       3.95250000       1.31750000      -0.00000000       0.00000000      -0.00000000
P        3.95250000       3.95250000       3.95250000      -0.00000000       0.00000000      -0.00000000
