8
Lattice="6.68 0.0 0.0 0.0 6.68 0.0 0.0 0.0 6.68" Properties=species:S:1:pos:R:3:forces:R:3 energy=-33.64736294 stress="0.06785288749608498 -0.0 -0.0 -0.0 0.06785288749608498 -0.0 -0.0 -0.0 0.06785288749608498" pbc="T T T"
In       0.00000000       0.00000000       0.00000000       0.00000000      -0.00000000       0.00000000
In       3.34000000       0.00000000       3.34000000      -0.00000000       0.00000000      -0.00000000
In       0.00000000       3.34000000       3.34000000       0.00000000      -0.00000000       0.00000000
In       3.34000000       3.34000000       0.00000000       0.00000000       0.00000000      -0.00000000
P        1.67000000       1.67000000       5.01000000      -0.00000000       0.00000000       0.00000000
P        5.01000000       1.67000000       1.67000000      -0.00000000       0.00000000       0.00000000
P        1.67000000       5.01000000       1.67000000      -0.00000000       0.00000000       0.00000000
P        5.01000000       5.01000000       5.01000000      -0.00000000       0.00000000       0.00000000
