8
Lattice="5.2 0.0 0.0 0.0 5.2 0.0 0.0 0.0 5.2" Properties=species:S:1:pos:R:3:forces:R:3 energy=-31.78044211 stress="-0.3292186536442062 0.0 0.0 0.0 -0.3292186536442062 0.0 0.0 0.0 -0.3292186536442062" pbc="T T T"
In       0.00000000       0.00000000       0.00000000       0.00000000      -0.00000000       0.00000000
In       2.60000000       0.00000000       2.60000000       0.00000000       0.00000000       0.00000000
In       0.00000000       2.60000000       2.60000000       0.00000000       0.00000000       0.00000000
In       2.60000000       2.60000000       0.00000000       0.00000000       0.00000000       0.00000000
P        1.30000000       1.30000000       3.90000000      -0.00000000      -0.00000000      -0.00000000
P        3.90000000       1.30000000       1.30000000      -0.00000000      -0.00000000      -0.00000000
P        1.30000000       3.90000000       1.30000000      -0.00000000      -0.00000000      -0.00000000
P        3.90000000       3.90000000       3.90000000      -0.00000000      -0.00000000      -0.00000000
