8
Lattice="6.25 0.0 0.0 0.0 6.25 0.0 0.0 0.0 6.25" Properties=species:S:1:pos:R:3:forces:R:3 energy=-37.13249287 stress="0.05666792838024665 0.0 0.0 0.0 0.05666792838024665 -0.0 0.0 -0.0 0.05666792838024665" pbc="T T T"
In       0.00000000       0.00000000       0.00000000      -0.00000000      -0.00000000      -0.00000000
In       3.12500000       0.00000000       3.12500000       0.00000000       0.00000000       0.00000000
In       0.00000000       3.12500000       3.12500000       0.00000000       0.00000000      -0.00000000
In       3.12500000       3.12500000       0.00000000      -0.00000000      -0.00000000      -0.00000000
P        1.56250000       1.56250000       4.68750000      -0.00000000      -0.00000000      -0.00000000
P        4.68750000       1.56250000       1.56250000      -0.00000000       0.00000000       0.00000000
P        1.56250000       4.68750000       1.56250000       0.00000000       0.00000000       0.00000000
P        4.68750000       4.68750000       4.68750000      -0.00000000       0.00000000       0.00000000
