8
Lattice="4.98 0.0 0.0 0.0 4.98 0.0 0.0 0.0 4.98" Properties=species:S:1:pos:R:3:forces:R:3 energy=-24.0313324 stress="-0.6010485907097816 0.0 0.0 0.0 -0.6010485907097816 -0.0 0.0 -0.0 -0.6010485907097816" pbc="T T T"
In       0.00000000       0.00000000       0.00000000       0.00000000      -0.00000000       0.00000000
In       2.49000000       0.00000000       2.49000000       0.00000000       0.00000000       0.00000000
In       0.00000000       2.49000000       2.49000000      -0.00000000       0.00000000       0.00000000
In       2.49000000       2.49000000       0.00000000       0.00000000      -0.00000000       0.00000000
P        1.24500000       1.24500000       3.73500000      -0.00000000      -0.00000000      -0.00000000
P        3.73500000       1.24500000       1.24500000      -0.00000000       0.00000000      -0.00000000
P        1.24500000       3.73500000       1.24500000      -0.00000000      -0.00000000      -0.00000000
P        3.73500000       3.73500000       3.73500000      -0.00000000      -0.00000000      -0.00000000
