8
Lattice="5.15 0.0 0.0 0.0 5.15 0.0 0.0 0.0 5.15" Properties=species:S:1:pos:R:3:forces:R:3 energy=-30.35573414 stress="-0.38070270910296883 -0.0 0.0 -0.0 -0.38070270910296883 -0.0 0.0 -0.0 -0.38070270910296883" pbc="T T T"
In       0.00000000       0.00000000       0.00000000       0.00000000      -0.00000000      -0.00000000
In       2.57500000       0.00000000       2.57500000       0.00000000      -0.00000000      -0.00000000
In       0.00000000       2.57500000       2.57500000       0.00000000      -0.00000000      -0.00000000
In       2.57500000       2.57500000       0.00000000       0.00000000      -0.00000000      -0.00000000
P        1.28750000       1.28750000       3.86250000      -0.00000000       0.00000000       0.00000000
P        3.86250000       1.28750000       1.28750000      -0.00000000       0.00000000       0.00000000
P        1.28750000       3.86250000       1.28750000      -0.00000000       0.00000000       0.00000000
P        3.86250000       3.86250000       3.86250000       0.00000000       0.00000000       0.00000000
