8
Lattice="6.78 0.0 0.0 0.0 6.78 0.0 0.0 0.0 6.78" Properties=species:S:1:pos:R:3:forces:R:3 energy=-32.73053126 stress="0.06719070706839264 -0.0 0.0 -0.0 0.06719070706839264 -0.0 0.0 -0.0 0.06719070706839264" pbc="T T T"
In       0.00000000       0.00000000       0.00000000       0.00000000      -0.00000000       0.00000000
In       3.39000000       0.00000000       3.39000000       0.00000000      -0.00000000      -0.00000000
In       0.00000000       3.39000000       3.39000000       0.00000000      -0.00000000       0.00000000
In       3.39000000       3.39000000       0.00000000       0.00000000      -0.00000000       0.00000000
P        1.69500000       1.69500000       5.08500000      -0.00000000       0.00000000      -0.00000000
P        5.08500000       1.69500000       1.69500000      -0.00000000       0.00000000      -0.00000000
P        1.69500000       5.08500000       1.69500000      -0.00000000       0.00000000      -0.00000000
P        5.08500000       5.08500000       5.08500000      -0.00000000       0.00000000      -0.00000000
