8
Lattice="6.98 0.0 0.0 0.0 6.98 0.0 0.0 0.0 6.98" Properties=species:S:1:pos:R:3:forces:R:3 energy=-30.86332188 stress="0.06413448346830351 0.0 0.0 0.0 0.06413448346830351 -0.0 0.0 -0.0 0.06413448346830351" pbc="T T T"
In       0.00000000       0.00000000       0.00000000       0.00000000      -0.00000000       0.00000000
In       3.49000000       0.00000000       3.49000000       0.00000000      -0.00000000       0.00000000
In       0.00000000       3.49000000       3.49000000       0.00000000      -0.00000000       0.00000000
In       3.49000000       3.49000000       0.00000000      -0.00000000      -0.00000000       0.00000000
P        1.74500000       1.74500000       5.23500000      -0.00000000       0.00000000      -0.00000000
P        5.23500000       1.74500000       1.74500000      -0.00000000       0.00000000      -0.00000000
P        1.74500000       5.23500000       1.74500000      -0.00000000       0.00000000      -0.00000000
P        5.23500000       5.23500000       5.23500000      -0.00000000       0.00000000      -0.00000000
