8
Lattice="5.23 0.0 0.0 0.0 5.23 0.0 0.0 0.0 5.23" Properties=species:S:1:pos:R:3:forces:R:3 energy=-32.55240718 stress="-0.3014484319205964 0.0 0.0 0.0 -0.3014484319205964 0.0 0.0 0.0 -0.3014484319205964" pbc="T T T"
In       0.00000000       0.00000000       0.00000000       0.00000000      -0.00000000       0.00000000
In       2.61500000       0.00000000       2.61500000       0.00000000       0.00000000      -0.00000000
In       0.00000000       2.61500000       2.61500000      -0.00000000      -0.00000000       0.00000000
In       2.61500000       2.61500000       0.00000000      -0.00000000      -0.00000000      -0.00000000
P        1.30750000       1.30750000       3.92250000       0.00000000      -0.00000000      -0.00000000
P        3.92250000       1.30750000       1.30750000       0.00000000      -0.00000000       0.00000000
P        1.30750000       3.92250000       1.30750000       0.00000000      -0.00000000       0.00000000
P        3.92250000       3.92250000       3.92250000      -0.00000000      -0.00000000      -0.00000000
