4
Lattice="3.9967168 0.0 0.0 1.9983584 3.4612582 0.0 0.0 0.0 6.5847507" Properties=species:S:1:pos:R:3:forces:R:3 energy=-19.18005062 stress="-0.044335873509707885 0.0 -0.0 0.0 -0.044335873509707885 -0.0 -0.0 -0.0 -0.04409590620834504" pbc="T T T"
In       1.99836000       1.15375000       2.45894000      -0.00000000      -0.00000000      -0.00452100
In       3.99672000       2.30751000       5.75132000       0.00000000       0.00000000      -0.00452100
P        1.99836000       1.15375000       0.00000000      -0.00000000       0.00000000       0.00452100
P        3.99672000       2.30751000       3.29238000       0.00000000       0.00000000       0.00452100
