4
Lattice="3.8239403 0.0 0.0 1.9119702 3.3116295 0.0 0.0 0.0 6.3452935" Properties=species:S:1:pos:R:3:forces:R:3 energy=-18.20222587 stress="-0.14795089812360343 -0.0 -0.0 -0.0 -0.14795090436511255 0.0 -0.0 0.0 -0.14755755197698114" pbc="T T T"
In       1.91197000       1.10388000       2.35569000      -0.00000000      -0.00000000      -0.02786700
In       3.82394000       2.20775000       5.52834000       0.00000000       0.00000000      -0.02786700
P        1.91197000       1.10388000       0.00000000      -0.00000000      -0.00000000       0.02786700
P        3.82394000       2.20775000       3.17265000       0.00000000      -0.00000000       0.02786700
