4
Lattice="4.1745205 0.0 0.0 2.0872602 3.6152406 0.0 0.0 0.0 6.8556476" Properties=species:S:1:pos:R:3:forces:R:3 energy=-19.30159325 stress="0.01786179477872456 -0.0 -0.0 -0.0 0.01786179477872456 -0.0 -0.0 -0.0 0.01810239247250911" pbc="T T T"
In       2.08726000       1.20508000       2.56881000       0.00000000      -0.00000000      -0.00237800
In       4.17452000       2.41016000       5.99664000       0.00000000       0.00000000      -0.00237800
P        2.08726000       1.20508000       0.00000000      -0.00000000       0.00000000       0.00237800
P        4.17452000       2.41016000       3.42782000      -0.00000000      -0.00000000       0.00237800
