4
Lattice="3.8604536 0.0 0.0 1.9302268 3.3432508 0.0 0.0 0.0 6.3937988" Properties=species:S:1:pos:R:3:forces:R:3 energy=-18.49408247 stress="-0.12162663433616867 -0.0 -0.0 -0.0 -0.12162662809465959 -0.0 -0.0 -0.0 -0.12122886920108528" pbc="T T T"
In       1.93023000       1.11442000       2.37721000       0.00000000      -0.00000000      -0.01845700
In       3.86045000       2.22883000       5.57411000       0.00000000       0.00000000      -0.01845700
P        1.93023000       1.11442000       0.00000000      -0.00000000       0.00000000       0.01845700
P        3.86045000       2.22883000       3.19690000      -0.00000000       0.00000000       0.01845700
